CRYSTAL
PRIMVEC
 2.0000000000000 0.00000000000000 0.00000000000000
 0.00000000000000 2.0000000000000 0.00000000000000
 0.00000000000000 0.00000000000000 20.00000000000000
PRIMCOORD
 2 1
  1     0.00000000000000     0.00000000000000     0.00000000000000
  1     1.00000000000000     1.00000000000000     0.00000000000000
