CRYSTAL
PRIMVEC
 1.23000000000000 2.13042249000000 0.00000000000000
 -1.23000000000000 2.13042249000000 0.00000000000000
 0.00000000000000 0.00000000000000 100.00000000000000
PRIMCOORD
 2 1
  6     0.00000000000000     1.42028166000000    -1.67750000000000
  6     0.00000000000000     0.00000000000000    -1.67750000000000
