 # File generated with Atomsk by liwe739d on 2022-01-10 18:38:07
 CRYSTAL
 PRIMVEC
      3.11754260        0.00000000        0.00000000
     -1.55877130        2.69987109        0.00000000
      0.00000000        0.00000000      20.42608117
 CONVVEC
      3.11754260        0.00000000        0.00000000
     -1.55877130        2.69987109        0.00000000
      0.00000000        0.00000000      20.42608117
 PRIMCOORD
        3 1
42        0.03531818        1.83050125       12.68520403
16        3.15286078        0.03058719       11.12629749
16        3.15286078        0.03058719       14.24411057
