 # File generated with Atomsk by liwe739d on 2022-01-10 18:38:07
 CRYSTAL
 PRIMVEC
      3.31135531        0.00000000        0.00000000
     -1.65567765        2.86771782        0.00000000
      0.00000000        0.00000000       20.19351612
 CONVVEC
      3.31135531        0.00000000        0.00000000
     -1.65567765        2.86771782        0.00000000
      0.00000000        0.00000000       20.19351612
 PRIMCOORD
        3 1
42        0.00221934        1.91373388       11.74659597
34        3.31357465        0.00192200       13.40241155
34        3.31357465        0.00192200       10.09078040
